Circuit: * Z:\home\wbc\VetalProjects\KPI-Analog-Course-Work\Simulation\Draft2.asc

.OP point found by inspection.

Date: Tue May 19 12:40:54 2020
Total elapsed time: 0.083 seconds.

tnom = 27
temp = 27
method = modified trap
totiter = 3824
traniter = 3824
tranpoints = 1913
accept = 1765
rejected = 148
matrix size = 2
fillins = 0
solver = Normal
Matrix Compiler1: 36 bytes object code size  0.1/0.1/[0.1]
Matrix Compiler2: 96 bytes object code size  0.1/0.1/[0.1]

